Version 4
SHEET 1 1672 1104
WIRE 1120 -112 624 -112
WIRE -784 -16 -1232 -16
WIRE -224 -16 -784 -16
WIRE -96 -16 -144 -16
WIRE 96 -16 -96 -16
WIRE -96 32 -96 -16
WIRE 1424 32 736 32
WIRE -1232 48 -1232 -16
WIRE 624 48 624 -112
WIRE 624 48 336 48
WIRE 1120 64 1120 -112
WIRE 1424 64 1424 32
WIRE 336 96 336 48
WIRE -784 112 -784 -16
WIRE 96 112 96 -16
WIRE 304 112 96 112
WIRE 304 144 160 144
WIRE -96 160 -96 112
WIRE 32 160 -96 160
WIRE 160 160 160 144
WIRE -1232 176 -1232 128
WIRE 1120 176 1120 144
WIRE 1120 176 1056 176
WIRE 1424 176 1424 144
WIRE 1424 176 1120 176
WIRE 976 192 480 192
WIRE 1056 208 1056 176
WIRE -96 224 -96 160
WIRE 304 240 160 240
WIRE 304 272 96 272
WIRE -1232 336 -1232 256
WIRE -1088 336 -1232 336
WIRE -992 336 -1088 336
WIRE -784 336 -784 192
WIRE -784 336 -912 336
WIRE -224 336 -784 336
WIRE -96 336 -96 304
WIRE -96 336 -144 336
WIRE 96 336 96 272
WIRE 96 336 -96 336
WIRE 336 368 336 288
WIRE 1120 368 1120 176
WIRE 1120 368 336 368
WIRE 32 432 32 160
WIRE 416 432 416 256
WIRE 416 432 32 432
WIRE 736 432 736 32
WIRE 736 432 416 432
WIRE 624 544 624 48
WIRE 624 544 368 544
WIRE -1088 592 -1088 336
WIRE -224 592 -1088 592
WIRE -80 592 -144 592
WIRE 96 592 -80 592
WIRE 368 656 368 544
WIRE 96 672 96 592
WIRE 336 672 96 672
WIRE 336 704 192 704
WIRE -80 720 -80 672
WIRE 32 720 32 432
WIRE 32 720 -80 720
WIRE 192 720 192 704
WIRE 832 752 512 752
WIRE -80 784 -80 720
WIRE 336 800 192 800
WIRE 736 816 736 432
WIRE 736 816 448 816
WIRE 336 832 96 832
WIRE 832 848 832 752
WIRE 976 848 976 192
WIRE -784 864 -784 336
WIRE -224 864 -784 864
WIRE -80 864 -144 864
WIRE 96 864 96 832
WIRE 96 864 -80 864
WIRE 368 960 368 848
WIRE 832 960 832 928
WIRE 832 960 368 960
WIRE 976 960 976 928
WIRE 976 960 832 960
WIRE 1120 960 1120 368
WIRE 1120 960 976 960
FLAG 1056 208 0
SYMBOL voltage 1120 48 R0
WINDOW 123 0 0 Left 2
WINDOW 39 0 0 Left 2
SYMATTR InstName V1
SYMATTR Value 3.3
SYMBOL voltage 1424 48 R0
WINDOW 123 0 0 Left 2
WINDOW 39 0 0 Left 2
SYMATTR InstName V2
SYMATTR Value 1.65
SYMBOL voltage -784 96 R0
WINDOW 123 0 0 Left 2
WINDOW 39 0 0 Left 2
SYMATTR InstName V3
SYMATTR Value SINE(0 400 50 0 0 0 100)
SYMBOL res -128 -32 R90
WINDOW 0 0 56 VBottom 2
WINDOW 3 32 56 VTop 2
SYMATTR InstName R8
SYMATTR Value 10000000
SYMBOL res -128 320 R90
WINDOW 0 0 56 VBottom 2
WINDOW 3 32 56 VTop 2
SYMATTR InstName R9
SYMATTR Value 10000000
SYMBOL res -112 16 R0
SYMATTR InstName R10
SYMATTR Value 10000
SYMBOL res 960 832 R0
SYMATTR InstName R1
SYMATTR Value 10000
SYMBOL res 176 256 R180
WINDOW 0 36 76 Left 2
WINDOW 3 36 40 Left 2
SYMATTR InstName R2
SYMATTR Value 200000
SYMBOL res 208 816 R180
WINDOW 0 36 76 Left 2
WINDOW 3 36 40 Left 2
SYMATTR InstName R3
SYMATTR Value 100
SYMBOL res 816 832 R0
SYMATTR InstName R4
SYMATTR Value 10000
SYMBOL res -896 320 R90
WINDOW 0 0 56 VBottom 2
WINDOW 3 32 56 VTop 2
SYMATTR InstName R5
SYMATTR Value .01
SYMBOL res -1216 272 R180
WINDOW 0 36 76 Left 2
WINDOW 3 36 40 Left 2
SYMATTR InstName R6
SYMATTR Value 40
SYMBOL ind -1248 32 R0
SYMATTR InstName L1
SYMATTR Value .1
SYMBOL res -128 576 R90
WINDOW 0 0 56 VBottom 2
WINDOW 3 32 56 VTop 2
SYMATTR InstName R7
SYMATTR Value 10000000
SYMBOL res -128 848 R90
WINDOW 0 0 56 VBottom 2
WINDOW 3 32 56 VTop 2
SYMATTR InstName R11
SYMATTR Value 10000000
SYMBOL res -112 208 R0
SYMATTR InstName R12
SYMATTR Value 10000
SYMBOL res -96 576 R0
SYMATTR InstName R13
SYMATTR Value 1000000
SYMBOL res -96 768 R0
SYMATTR InstName R14
SYMATTR Value 1000000
SYMBOL Opamps\\LT1789-1 336 192 R0
SYMATTR InstName U2
SYMBOL Opamps\\LT1789-1 368 752 R0
SYMATTR InstName U1
TEXT -552 1088 Left 2 !.tran 0 0.1 0.02
