Version 4
SHEET 1 1396 1104
WIRE 1120 -112 624 -112
WIRE 352 -64 240 -64
WIRE 560 -64 432 -64
WIRE -784 -16 -1232 -16
WIRE -224 -16 -784 -16
WIRE -96 -16 -144 -16
WIRE 96 -16 -96 -16
WIRE -96 32 -96 -16
WIRE -1232 48 -1232 -16
WIRE 240 64 240 -64
WIRE 272 64 240 64
WIRE 560 64 560 -64
WIRE 560 64 528 64
WIRE 1120 64 1120 -112
WIRE -784 112 -784 -16
WIRE 96 128 96 -16
WIRE 272 128 96 128
WIRE 624 128 624 -112
WIRE 624 128 528 128
WIRE -96 160 -96 112
WIRE 16 160 -96 160
WIRE -1232 176 -1232 128
WIRE 1056 176 736 176
WIRE 1120 176 1120 144
WIRE 1120 176 1056 176
WIRE 16 192 16 160
WIRE 272 192 96 192
WIRE 976 192 528 192
WIRE 1056 208 1056 176
WIRE 1120 208 1120 176
WIRE -96 224 -96 160
WIRE 272 256 208 256
WIRE 736 256 736 176
WIRE 736 256 528 256
WIRE -1232 336 -1232 256
WIRE -1088 336 -1232 336
WIRE -992 336 -1088 336
WIRE -784 336 -784 192
WIRE -784 336 -912 336
WIRE -224 336 -784 336
WIRE -96 336 -96 304
WIRE -96 336 -144 336
WIRE 96 336 96 192
WIRE 96 336 -96 336
WIRE 368 496 256 496
WIRE 576 496 448 496
WIRE -1088 592 -1088 336
WIRE -224 592 -1088 592
WIRE -80 592 -144 592
WIRE 96 592 -80 592
WIRE 256 624 256 496
WIRE 288 624 256 624
WIRE 576 624 576 496
WIRE 576 624 544 624
WIRE 96 688 96 592
WIRE 288 688 96 688
WIRE 624 688 624 128
WIRE 624 688 544 688
WIRE -80 720 -80 672
WIRE 32 720 -80 720
WIRE 32 752 32 720
WIRE 288 752 96 752
WIRE 832 752 544 752
WIRE -80 784 -80 720
WIRE 208 816 208 256
WIRE 288 816 208 816
WIRE 736 816 736 256
WIRE 736 816 544 816
WIRE 832 848 832 752
WIRE 976 848 976 192
WIRE -784 864 -784 336
WIRE -224 864 -784 864
WIRE -80 864 -144 864
WIRE 96 864 96 752
WIRE 96 864 -80 864
WIRE 208 960 208 816
WIRE 832 960 832 928
WIRE 832 960 208 960
WIRE 976 960 976 928
WIRE 976 960 832 960
WIRE 1120 960 1120 288
WIRE 1120 960 976 960
FLAG 1056 208 0
FLAG 16 192 0
FLAG 32 752 0
SYMBOL voltage 1120 48 R0
WINDOW 123 0 0 Left 2
WINDOW 39 0 0 Left 2
SYMATTR InstName V1
SYMATTR Value 15
SYMBOL voltage 1120 192 R0
WINDOW 123 0 0 Left 2
WINDOW 39 0 0 Left 2
SYMATTR InstName V2
SYMATTR Value 15
SYMBOL voltage -784 96 R0
WINDOW 123 0 0 Left 2
WINDOW 39 0 0 Left 2
SYMATTR InstName V3
SYMATTR Value SINE(0 400 50 0 0 0 100)
SYMBOL res -128 -32 R90
WINDOW 0 0 56 VBottom 2
WINDOW 3 32 56 VTop 2
SYMATTR InstName R8
SYMATTR Value 10000000
SYMBOL res -128 320 R90
WINDOW 0 0 56 VBottom 2
WINDOW 3 32 56 VTop 2
SYMATTR InstName R9
SYMATTR Value 10000000
SYMBOL res -112 16 R0
SYMATTR InstName R10
SYMATTR Value 100000
SYMBOL Opamps\\LT1167 400 160 R0
SYMATTR InstName U4
SYMBOL res 960 832 R0
SYMATTR InstName R1
SYMATTR Value 10000
SYMBOL res 448 -80 R90
WINDOW 0 0 56 VBottom 2
WINDOW 3 32 56 VTop 2
SYMATTR InstName R2
SYMATTR Value 50000
SYMBOL Opamps\\LT1167 416 720 R0
SYMATTR InstName U1
SYMBOL res 464 480 R90
WINDOW 0 0 56 VBottom 2
WINDOW 3 32 56 VTop 2
SYMATTR InstName R3
SYMATTR Value 100
SYMBOL res 816 832 R0
SYMATTR InstName R4
SYMATTR Value 10000
SYMBOL res -896 320 R90
WINDOW 0 0 56 VBottom 2
WINDOW 3 32 56 VTop 2
SYMATTR InstName R5
SYMATTR Value .01
SYMBOL res -1216 272 R180
WINDOW 0 36 76 Left 2
WINDOW 3 36 40 Left 2
SYMATTR InstName R6
SYMATTR Value 40
SYMBOL ind -1248 32 R0
SYMATTR InstName L1
SYMATTR Value .1
SYMBOL res -128 576 R90
WINDOW 0 0 56 VBottom 2
WINDOW 3 32 56 VTop 2
SYMATTR InstName R7
SYMATTR Value 10000000
SYMBOL res -128 848 R90
WINDOW 0 0 56 VBottom 2
WINDOW 3 32 56 VTop 2
SYMATTR InstName R11
SYMATTR Value 10000000
SYMBOL res -112 208 R0
SYMATTR InstName R12
SYMATTR Value 100000
SYMBOL res -96 576 R0
SYMATTR InstName R13
SYMATTR Value 1000000
SYMBOL res -96 768 R0
SYMATTR InstName R14
SYMATTR Value 1000000
TEXT -552 1088 Left 2 !.tran 0 0.1 0.02
